<?xml version="1.0" encoding="UTF-8"?>

<!-- generated on 01/27/24 13:04:37 by Eclipse SUMO netedit Version 1.8.0
<configuration xmlns:xsi="http://www.w3.org/2001/XMLSchema-instance" xsi:noNamespaceSchemaLocation="http://sumo.dlr.de/xsd/netconvertConfiguration.xsd">

    <output>
        <output-file value="C:\Users\Suraj\Downloads\test.net.xml"/>
    </output>

    <processing>
        <offset.disable-normalization value="true"/>
        <lefthand value="true"/>
    </processing>

    <junctions>
        <no-turnarounds value="true"/>
    </junctions>

    <report>
        <aggregate-warnings value="5"/>
    </report>

</configuration>
-->

<net version="1.6" junctionCornerDetail="5" lefthand="true" limitTurnSpeed="5.50" xmlns:xsi="http://www.w3.org/2001/XMLSchema-instance" xsi:noNamespaceSchemaLocation="http://sumo.dlr.de/xsd/net_file.xsd">

    <location netOffset="0.00,-0.00" convBoundary="0.00,0.00,2000.00,0.00" origBoundary="10000000000.00,10000000000.00,-10000000000.00,-10000000000.00" projParameter="!"/>

    <edge id=":gneJ1_0" function="internal">
        <lane id=":gneJ1_0_0" index="0" speed="20.11" length="0.10" shape="500.00,-4.80 500.00,-4.80"/>
        <lane id=":gneJ1_0_1" index="1" speed="20.11" length="0.10" shape="500.00,-1.60 500.00,-1.60"/>
    </edge>
    <edge id=":gneJ1_2" function="internal">
        <lane id=":gneJ1_2_0" index="0" speed="20.11" length="0.10" shape="500.00,4.80 500.00,4.80"/>
        <lane id=":gneJ1_2_1" index="1" speed="20.11" length="0.10" shape="500.00,1.60 500.00,1.60"/>
    </edge>
    <edge id=":gneJ2_0" function="internal">
        <lane id=":gneJ2_0_0" index="0" speed="20.11" length="0.10" shape="1500.00,-4.80 1500.00,-4.80"/>
        <lane id=":gneJ2_0_1" index="1" speed="20.11" length="0.10" shape="1500.00,-1.60 1500.00,-1.60"/>
    </edge>
    <edge id=":gneJ2_2" function="internal">
        <lane id=":gneJ2_2_0" index="0" speed="20.11" length="0.10" shape="1500.00,4.80 1500.00,4.80"/>
        <lane id=":gneJ2_2_1" index="1" speed="20.11" length="0.10" shape="1500.00,1.60 1500.00,1.60"/>
    </edge>

    <edge id="-gneE0" from="gneJ1" to="gneJ0" priority="-1">
        <lane id="-gneE0_0" index="0" speed="20.11" length="500.00" shape="500.00,-4.80 0.00,-4.80"/>
        <lane id="-gneE0_1" index="1" speed="20.11" length="500.00" shape="500.00,-1.60 0.00,-1.60"/>
    </edge>
    <edge id="-gneE1" from="gneJ2" to="gneJ1" priority="-1">
        <lane id="-gneE1_0" index="0" speed="20.11" length="1000.00" shape="1500.00,-4.80 500.00,-4.80"/>
        <lane id="-gneE1_1" index="1" speed="20.11" length="1000.00" shape="1500.00,-1.60 500.00,-1.60"/>
    </edge>
    <edge id="-gneE2" from="gneJ3" to="gneJ2" priority="-1">
        <lane id="-gneE2_0" index="0" speed="20.11" length="500.00" shape="2000.00,-4.80 1500.00,-4.80"/>
        <lane id="-gneE2_1" index="1" speed="20.11" length="500.00" shape="2000.00,-1.60 1500.00,-1.60"/>
    </edge>
    <edge id="gneE0" from="gneJ0" to="gneJ1" priority="-1">
        <lane id="gneE0_0" index="0" speed="20.11" length="500.00" shape="0.00,4.80 500.00,4.80"/>
        <lane id="gneE0_1" index="1" speed="20.11" length="500.00" shape="0.00,1.60 500.00,1.60"/>
    </edge>
    <edge id="gneE1" from="gneJ1" to="gneJ2" priority="-1">
        <lane id="gneE1_0" index="0" speed="20.11" length="1000.00" shape="500.00,4.80 1500.00,4.80"/>
        <lane id="gneE1_1" index="1" speed="20.11" length="1000.00" shape="500.00,1.60 1500.00,1.60"/>
    </edge>
    <edge id="gneE2" from="gneJ2" to="gneJ3" priority="-1">
        <lane id="gneE2_0" index="0" speed="20.11" length="500.00" shape="1500.00,4.80 2000.00,4.80"/>
        <lane id="gneE2_1" index="1" speed="20.11" length="500.00" shape="1500.00,1.60 2000.00,1.60"/>
    </edge>

    <junction id="gneJ0" type="dead_end" x="0.00" y="0.00" incLanes="-gneE0_0 -gneE0_1" intLanes="" shape="0.00,-0.00 0.00,-6.40 0.00,-0.00"/>
    <junction id="gneJ1" type="priority" x="500.00" y="0.00" incLanes="-gneE1_0 -gneE1_1 gneE0_0 gneE0_1" intLanes=":gneJ1_0_0 :gneJ1_0_1 :gneJ1_2_0 :gneJ1_2_1" shape="500.00,-6.40 500.00,6.40 500.00,-6.40">
        <request index="0" response="0000" foes="0000" cont="0"/>
        <request index="1" response="0000" foes="0000" cont="0"/>
        <request index="2" response="0000" foes="0000" cont="0"/>
        <request index="3" response="0000" foes="0000" cont="0"/>
    </junction>
    <junction id="gneJ2" type="priority" x="1500.00" y="0.00" incLanes="-gneE2_0 -gneE2_1 gneE1_0 gneE1_1" intLanes=":gneJ2_0_0 :gneJ2_0_1 :gneJ2_2_0 :gneJ2_2_1" shape="1500.00,-6.40 1500.00,6.40 1500.00,-6.40">
        <request index="0" response="0000" foes="0000" cont="0"/>
        <request index="1" response="0000" foes="0000" cont="0"/>
        <request index="2" response="0000" foes="0000" cont="0"/>
        <request index="3" response="0000" foes="0000" cont="0"/>
    </junction>
    <junction id="gneJ3" type="dead_end" x="2000.00" y="0.00" incLanes="gneE2_0 gneE2_1" intLanes="" shape="2000.00,-0.00 2000.00,6.40 2000.00,-0.00"/>

    <connection from="-gneE1" to="-gneE0" fromLane="0" toLane="0" via=":gneJ1_0_0" dir="s" state="M"/>
    <connection from="-gneE1" to="-gneE0" fromLane="1" toLane="1" via=":gneJ1_0_1" dir="s" state="M"/>
    <connection from="-gneE2" to="-gneE1" fromLane="0" toLane="0" via=":gneJ2_0_0" dir="s" state="M"/>
    <connection from="-gneE2" to="-gneE1" fromLane="1" toLane="1" via=":gneJ2_0_1" dir="s" state="M"/>
    <connection from="gneE0" to="gneE1" fromLane="0" toLane="0" via=":gneJ1_2_0" dir="s" state="M"/>
    <connection from="gneE0" to="gneE1" fromLane="1" toLane="1" via=":gneJ1_2_1" dir="s" state="M"/>
    <connection from="gneE1" to="gneE2" fromLane="0" toLane="0" via=":gneJ2_2_0" dir="s" state="M"/>
    <connection from="gneE1" to="gneE2" fromLane="1" toLane="1" via=":gneJ2_2_1" dir="s" state="M"/>

    <connection from=":gneJ1_0" to="-gneE0" fromLane="0" toLane="0" dir="s" state="M"/>
    <connection from=":gneJ1_0" to="-gneE0" fromLane="1" toLane="1" dir="s" state="M"/>
    <connection from=":gneJ1_2" to="gneE1" fromLane="0" toLane="0" dir="s" state="M"/>
    <connection from=":gneJ1_2" to="gneE1" fromLane="1" toLane="1" dir="s" state="M"/>
    <connection from=":gneJ2_0" to="-gneE1" fromLane="0" toLane="0" dir="s" state="M"/>
    <connection from=":gneJ2_0" to="-gneE1" fromLane="1" toLane="1" dir="s" state="M"/>
    <connection from=":gneJ2_2" to="gneE2" fromLane="0" toLane="0" dir="s" state="M"/>
    <connection from=":gneJ2_2" to="gneE2" fromLane="1" toLane="1" dir="s" state="M"/>

</net>
