<additional xmlns:xsi="http://www.w3.org/2001/XMLSchema-instance" xsi:noNamespaceSchemaLocation="http://sumo.dlr.de/xsd/additional_file.xsd">
 <parkingArea id="pa_0" lane="gneE1_0" startPos="500" endPos="510" roadsideCapacity="1"/>
</additional>